[General]
network = DetnetTestScenario

check-signals = true
record-eventlog = true
debug-on-errors = true
result-dir = strict_priority_detnet_mfd
sim-time-limit = 1s


# debug
**.displayAddresses = true
**.verbose = true
**.registerProtocol = true

**.*.clock.clockRate = "1us"

#*.configurator.config = xmldoc("xml/ipassign.xml")


**.**.eth[*].etherEncapE.useSNAP = true
**.**.eth[*].etherEncap.useSNAP = true
**.**.eth.etherEncap.useSNAP = true

# TO avoid the llc open trick used by nesting module. They open llcsocket request to etherencap so that etherencap doesnt drop packet. But this is not required
# and wrong to do so when upper layer protocols are present in the packet. Explicitly opening socket causes forced dropping of packets in this case.

#**.switchA.eth[*].queuing.transmissionSelection.switchparam = false

#**.switchA.numPcapRecorders = 1
#**.switchA.pcapRecorder[0].verbose = true
#**.switchA.pcapRecorder[*].alwaysFlush = true
#**.switchA.pcapRecorder[0].dumpProtocols = "ethernetmac ppp ieee80211mac ipv4"

# Switches
**.switch*.processingDelay[*].delay = 5us

**.switch*.eth[*].processingDelay.delay= 5us

# Modules with xml inputs
########################################### Strict priority with detnet extensions and mfd dropper #################################################
**.filteringDatabase.database = xmldoc("strict_priority_detnet_mfd/strict_priority_detnet_mfd_forwarding.xml", "/filteringDatabases/")
**.filteringDatabase.cycle = xmldoc("strict_priority_detnet_mfd/strict_priority_detnet_mfd_schedule.xml", "/schedule/")
**.gateController.initialSchedule = xmldoc("strict_priority_detnet_mfd/strict_priority_detnet_mfd_schedule.xml")
**.priority0.trafGenSchedApp.initialSchedule = xmldoc("strict_priority_detnet_mfd/strict_priority_detnet_mfd_schedule.xml")
**.priority1.trafGenSchedApp.initialSchedule = xmldoc("strict_priority_detnet_mfd/strict_priority_detnet_mfd_schedule.xml")
**.priority2.trafGenSchedApp.initialSchedule = xmldoc("strict_priority_detnet_mfd/strict_priority_detnet_mfd_schedule.xml")
####################################################################################################################################################

**.gateController.enableHoldAndRelease = false
**.switch*.eth[*].queuing.tsAlgorithms[0].typename = "StrictPriority"
**.switch*.eth[*].queuing.tsAlgorithms[1].typename = "StrictPriority"
**.switch*.eth[*].queuing.tsAlgorithms[2].typename = "StrictPriority"
**.switch*.eth[*].queuing.tsAlgorithms[3].typename = "StrictPriority"
**.switch*.eth[*].queuing.tsAlgorithms[4].typename = "StrictPriority"
**.switch*.eth[*].queuing.tsAlgorithms[5].typename = "StrictPriority"
**.switch*.eth[*].queuing.tsAlgorithms[6].typename = "StrictPriority"
**.switch*.eth[*].queuing.tsAlgorithms[7].typename = "StrictPriority"

########################################### Dropper Module ##########################################################################################
#Red Dropper
#**.switch*.eth[*].queuing.dropper.typename="RedDropper"
#**.switch*.eth[*].queuing.dropper.minths="10"
#**.switch*.eth[*].queuing.dropper.maxths="25"
##**.switch*.eth[*].queuing.redDropper.minths="10"
##**.switch*.eth[*].queuing.redDropper.maxths="25"

#Mfd Dropper
**.switch*.eth[*].queuing.dropper.typename= "MfdDropper"
**.switch*.eth[*].queuing.dropper.DetnetBandwidthReservation= 0.035 #Gbps
**.switch*.eth[*].queuing.dropper.OutputLinkBandwidth= 1  #Gbps
####################################################################################################################################################
#**.queues[0].expressQueue = true
#**.queues[1].expressQueue = true
#**.queues[2].expressQueue = true
#**.queues[3].expressQueue = true
#**.queues[4].expressQueue = true
#**.queues[5].expressQueue = true
#**.queues[6].expressQueue = true
#**.queues[7].expressQueue = true

**.queues[*].bufferCapacity = 363360b

**.switchA.eth[*].mac.enablePreemptingFrames = false



########################################### IP addresses for Detnet trafficGen ######################################################################
# Packet Generating EndHosts
**.priority0.trafGenSchedApp.destip="10.0.0.1"
**.priority1.trafGenSchedApp.destip="10.0.0.2"
**.priority2.trafGenSchedApp.destip="10.0.0.3"
**.nonpriority0.trafGenQueueApp.destip="10.0.0.4"
**.nonpriority1.trafGenQueueApp.destip="10.0.0.5"
####################################################################################################################################################






########################################### Ethernet and vlan  ###############################################################################
# MAC Addresses
**.priority0.eth.address="00-00-00-00-00-01"
**.priority1.eth.address="00-00-00-00-00-02"
**.priority2.eth.address="00-00-00-00-00-03"
**.nonpriority0.eth.address="00-00-00-00-00-04"
**.nonpriority1.eth.address="00-00-00-00-00-05"

**.priority0.trafGenSchedApp.vid = 1
**.priority1.trafGenSchedApp.vid = 2
**.priority2.trafGenSchedApp.vid = 3

**.prioritysink0.eth[0].address="00-00-00-00-00-06"
**.prioritysink1.eth[0].address="00-00-00-00-00-07"
**.prioritysink2.eth[0].address="00-00-00-00-00-08"
**.nonprioritysink0.eth[0].address="00-00-00-00-00-09"
**.nonprioritysink1.eth[0].address="00-00-00-00-00-0a"

**.nonpriority0.trafGenQueueApp.destAddress = "00-00-00-00-00-09"
**.nonpriority1.trafGenQueueApp.destAddress = "00-00-00-00-00-0a"
**.nonpriority*.trafGenQueueApp.packetLength = 1400Byte-4Byte # MTU-Size - VLAN-Tag-Size
**.nonpriority*.trafGenQueueApp.vlanTagEnabled = true
**.nonpriority0.trafGenQueueApp.pcp = 6
**.nonpriority0.trafGenQueueApp.vid = 5
**.nonpriority1.trafGenQueueApp.pcp = 5
**.nonpriority1.trafGenQueueApp.vid = 6
########################################################################################################################################################




########################################### Sinks ##########################################################################################################
# Sink EndHosts
**.*sink*.hasUdp = true
**.prioritysink*.numApps = 1
**.nonprioritysink1.numApps = 1
**.nonprioritysink0.numApps = 1
**.*sink*.app[0].typename = "UdpSink"
**.*sink*.app[0].localPort=4444

#*.switch*.numVlanInterfaces = 6
#*.switch*.vlan[*].typename = "DetnetVlanInterface"
#*.switch*.vlan[*].tunnel.vlanId = 42
#*.switch*.vlan[*].tunnel.vid = 10
#*.switch*.vlan[*].tunnel.pcp = 7
#*.switch*.vlan[*].tunnel.realInterfaceName = "eth5"

#*.nonprioritysink0.numVlanInterfaces = 1
#*.nonprioritysink0.vlan[*].typename = "DetnetVlanInterface"
#*.nonprioritysink0.vlan[0].tunnel.vlanId = 42
#*.nonprioritysink0.vlan[0].tunnel.vid = 10
#*.nonprioritysink0.vlan[0].tunnel.pcp = 2
#*.nonprioritysink0.vlan[0].tunnel.realInterfaceName = "eth0"
#*.configurator.config = xml("<config><interface hosts='**' address='10.0.0.x' netmask='255.255.255.x'/><route hosts='nonprioritysink0' destination='10.0.0.1' netmask='255.255.255.255' interface='vlan0'/></config>")

#**.nonprioritysink0.app[1].typename = "UdpBasicApp"
#**.nonprioritysink0.app[1].localPort = 1234
#**.nonprioritysink0.app[1].destPort = 4444
#**.nonprioritysink0.app[1].messageLength = 600 bytes
#**.nonprioritysink0.app[1].sendInterval = 0.000010s
#**.nonprioritysink0.app[1].destAddresses = "10.0.0.1"
############################################################################################################################################################