[General]
network = TestScenariodetnet5

check-signals = true
record-eventlog = true
debug-on-errors = true
result-dir = results_strict_priority_detnet5
sim-time-limit = 1s


# debug
**.displayAddresses = true
**.verbose = true
**.registerProtocol = true

**.*.clock.clockRate = "1us"


**.prioritysink0.hasUdp = true
**.prioritysink0.numApps = 1
**.prioritysink0.app[0].typename = "UdpSink"
**.prioritysink0.app[0].localPort=4444


# MAC Addresses
**.priority0.eth.address="00-00-00-00-00-01"
**.prioritysink0.eth[0].address="00-00-00-00-00-02"
#**.prioritysink0.eth.address="00-00-00-00-00-02"

**.**.eth[*].etherEncapE.useSNAP = true
**.**.eth.etherEncap.useSNAP = true


#**.switchA.eth[*].etherEncapE.registerProtocol = true

**.switchA.numPcapRecorders = 1
**.switchA.pcapRecorder[0].verbose = true
**.switchA.pcapRecorder[*].alwaysFlush = true
**.switchA.pcapRecorder[0].dumpProtocols = "ethernetmac ppp ieee80211mac ipv4"




# Switches
**.switch*.processingDelay[*].delay = 5us
**.filteringDatabase.database = xmldoc("xml/TestScenarioRouting5.xml", "/filteringDatabases/")
**.filteringDatabase.cycle = xmldoc("xml/TestScenarioSchedule_AllOpen5.xml", "/schedule/")


**.gateController.initialSchedule = xmldoc("xml/TestScenarioSchedule_AllOpen5.xml")
**.gateController.enableHoldAndRelease = false
**.switch*.eth[*].queuing.tsAlgorithms[0].typename = "StrictPriority"
**.switch*.eth[*].queuing.tsAlgorithms[1].typename = "StrictPriority"
**.switch*.eth[*].queuing.tsAlgorithms[2].typename = "StrictPriority"
**.switch*.eth[*].queuing.tsAlgorithms[3].typename = "StrictPriority"
**.switch*.eth[*].queuing.tsAlgorithms[4].typename = "StrictPriority"
**.switch*.eth[*].queuing.tsAlgorithms[5].typename = "StrictPriority"
**.switch*.eth[*].queuing.tsAlgorithms[6].typename = "StrictPriority"
**.switch*.eth[*].queuing.tsAlgorithms[7].typename = "StrictPriority"

#Red Dropper
#**.switch*.eth[*].queuing.dropper.typename="RedDropper"
#**.switch*.eth[*].queuing.dropper.minths="10"
#**.switch*.eth[*].queuing.dropper.maxths="25"
##**.switch*.eth[*].queuing.redDropper.minths="10"
##**.switch*.eth[*].queuing.redDropper.maxths="25"

#Mfd Dropper
**.switch*.eth[*].queuing.dropper.typename= "MfdDropper"
**.switch*.eth[*].queuing.dropper.DetnetBandwidthReservation= 1 #Gbps
**.switch*.eth[*].queuing.dropper.OutputLinkBandwidth= 1  #Gbps


#**.queues[0].expressQueue = true
#**.queues[1].expressQueue = true
#**.queues[2].expressQueue = true
#**.queues[3].expressQueue = true
#**.queues[4].expressQueue = true
#**.queues[5].expressQueue = true
#**.queues[6].expressQueue = true
#**.queues[7].expressQueue = true

**.queues[*].bufferCapacity = 363360b

**.switchA.eth[*].mac.enablePreemptingFrames = false

# Workstations

**.priority0.trafGenSchedApp.initialSchedule = xmldoc("xml/TestScenarioSchedule_AllOpen5.xml")
#**.priority0.trafGenQueueApp.destAddress = "00-00-00-00-00-06"

#**.priority0.trafGenQueueApp.vid = 1

# 
**.*sink*.trafGenApp.numPacketsPerBurst = 0
**.*sink*.trafGenApp.sendInterval = 1ms
**.*sink*.trafGenApp.packetLength = 100B

