[General]
network = TestScenariodetnet1

check-signals = true
record-eventlog = true
debug-on-errors = true
result-dir = results_strict_priority_detnet1
sim-time-limit = 1s

# debug
**.displayAddresses = true
**.verbose = true
**.registerProtocol = true

**.*.clock.clockRate = "1us"

# MAC Addresses
**.robotController.eth.address = "00-00-00-00-00-01"
**.workstation1.eth.address = "00-00-00-00-00-02"
**.workstation2.eth.address = "00-00-00-00-00-03"
**.roboticArm.eth.address = "00-00-00-00-00-04"
**.backupServer0.eth.address	= "00-00-00-00-00-05"
**.backupServer1.eth.address	= "00-00-00-00-00-06"

# Switches
**.switch*.processingDelay[*].delay = 5us
**.filteringDatabase.database = xmldoc("xml/TestScenarioRouting1.xml", "/filteringDatabases/")
**.filteringDatabase.cycle = xmldoc("xml/TestScenarioSchedule_AllOpen.xml", "/schedule/")

**.gateController.initialSchedule = xmldoc("xml/TestScenarioSchedule_AllOpen.xml")
**.gateController.enableHoldAndRelease = false
**.switch*.eth[*].queuing.tsAlgorithms[0].typename = "StrictPriority"
**.switch*.eth[*].queuing.tsAlgorithms[1].typename = "StrictPriority"
**.switch*.eth[*].queuing.tsAlgorithms[2].typename = "StrictPriority"
**.switch*.eth[*].queuing.tsAlgorithms[3].typename = "StrictPriority"
**.switch*.eth[*].queuing.tsAlgorithms[4].typename = "StrictPriority"
**.switch*.eth[*].queuing.tsAlgorithms[5].typename = "StrictPriority"
**.switch*.eth[*].queuing.tsAlgorithms[6].typename = "StrictPriority"
**.switch*.eth[*].queuing.tsAlgorithms[7].typename = "StrictPriority"

#Red Dropper
#**.switch*.eth[*].queuing.dropper.typename="RedDropper"
#**.switch*.eth[*].queuing.dropper.minths="10"
#**.switch*.eth[*].queuing.dropper.maxths="25"
##**.switch*.eth[*].queuing.redDropper.minths="10"
##**.switch*.eth[*].queuing.redDropper.maxths="25"

#Mfd Dropper
**.switch*.eth[*].queuing.dropper.typename= "MfdDropper"
**.switch*.eth[*].queuing.dropper.DetnetBandwidthReservation= 0.1 #Gbps
**.switch*.eth[*].queuing.dropper.OutputLinkBandwidth= 1  #Gbps


#**.queues[0].expressQueue = true
#**.queues[1].expressQueue = true
#**.queues[2].expressQueue = true
#**.queues[3].expressQueue = true
#**.queues[4].expressQueue = true
#**.queues[5].expressQueue = true
#**.queues[6].expressQueue = true
#**.queues[7].expressQueue = true

**.queues[*].bufferCapacity = 363360b

**.switchA.eth[3].mac.enablePreemptingFrames = false

# Schedule/Routing Swap
#**.scheduleSwap.schedule = xmldoc("xml/TestScenarioScheduleSwap.xml")

# Robot Controller
**.robotController.trafGenSchedApp.initialSchedule = xmldoc("xml/TestScenarioSchedule_AllOpen.xml")

# Workstations
**.workstation1.trafGenQueueApp.destAddress = "00-00-00-00-00-05"
**.workstation2.trafGenQueueApp.destAddress = "00-00-00-00-00-06"
**.workstation*.trafGenQueueApp.packetLength = 1500Byte-4Byte # MTU-Size - VLAN-Tag-Size
**.workstation*.trafGenQueueApp.vlanTagEnabled = true
**.workstation1.trafGenQueueApp.pcp = 6
**.workstation1.trafGenQueueApp.vid = 1
**.workstation2.trafGenQueueApp.pcp = 6
**.workstation2.trafGenQueueApp.vid = 12

# Robotic Arms
**.roboticArm.trafGenApp.numPacketsPerBurst = 0
**.roboticArm.trafGenApp.sendInterval = 1ms
**.roboticArm.trafGenApp.packetLength = 100B

# Backup Server
**.backupServer0.trafGenApp.numPacketsPerBurst = 0
**.backupServer0.trafGenApp.sendInterval = 1ms
**.backupServer0.trafGenApp.packetLength = 100B
# Backup Server
**.backupServer1.trafGenApp.numPacketsPerBurst = 0
**.backupServer1.trafGenApp.sendInterval = 1ms
**.backupServer1.trafGenApp.packetLength = 100B
