[General]
network = TestScenariodetnet2

check-signals = true
record-eventlog = true
debug-on-errors = true
result-dir = results_strict_priority_detnet2
sim-time-limit = 1s


# debug
**.displayAddresses = true
**.verbose = true
**.registerProtocol = true

**.*.clock.clockRate = "1us"


# Configurator
#*.configurator.config = xmldoc("xml/t.xml")
*.configurator.dumpAddresses = true
*.configurator.dumpTopology = true
*.configurator.dumpLinks = true
*.configurator.dumpRoutes = true
*.configurator.config = xml("<config> \
                                <interface hosts='nonpriority1' names='eth0' address='10.0.0.1'/> \
                                <interface hosts='nonprioritysink1' names='eth0' address='10.0.0.2'/> \
                                <interface hosts='**' address='10.x.x.x' netmask='255.x.x.x'/> \
                             </config>")


# Routing settings
*.*.ipv4.arp.typename = "GlobalArp"
*.*.ipv4.routingTable.netmaskRoutes = ""




**.nonpriority1.numDetnetInterfaces = 1
**.nonprioritysink1.numDetnetInterfaces = 1
# MAC Addresses
**.priority0.eth.address="00-00-00-00-00-01"
**.priority1.eth.address="00-00-00-00-00-02"
**.priority2.eth.address="00-00-00-00-00-03"
**.nonpriority0.eth.address="00-00-00-00-00-04"
**.nonpriority1.detnet[0].address="00-00-00-00-00-05"


**.prioritysink0.eth.address="00-00-00-00-00-06"
**.prioritysink1.eth.address="00-00-00-00-00-07"
**.prioritysink2.eth.address="00-00-00-00-00-08"
**.nonprioritysink0.eth.address="00-00-00-00-00-09"
**.nonprioritysink1.detnet[0].address="00-00-00-00-00-10"


# Switches
#**.switch*.processingDelay[*].delay = 5us
**.filteringDatabase.database = xmldoc("xml/TestScenarioRouting2.xml", "/filteringDatabases/")
**.filteringDatabase.cycle = xmldoc("xml/TestScenarioSchedule_AllOpen.xml", "/schedule/")


**.gateController.initialSchedule = xmldoc("xml/TestScenarioSchedule_AllOpen.xml")
**.gateController.enableHoldAndRelease = false
**.switch*.eth[*].queuing.tsAlgorithms[0].typename = "StrictPriority"
**.switch*.eth[*].queuing.tsAlgorithms[1].typename = "StrictPriority"
**.switch*.eth[*].queuing.tsAlgorithms[2].typename = "StrictPriority"
**.switch*.eth[*].queuing.tsAlgorithms[3].typename = "StrictPriority"
**.switch*.eth[*].queuing.tsAlgorithms[4].typename = "StrictPriority"
**.switch*.eth[*].queuing.tsAlgorithms[5].typename = "StrictPriority"
**.switch*.eth[*].queuing.tsAlgorithms[6].typename = "StrictPriority"
**.switch*.eth[*].queuing.tsAlgorithms[7].typename = "StrictPriority"

#Red Dropper
#**.switch*.eth[*].queuing.dropper.typename="RedDropper"
#**.switch*.eth[*].queuing.dropper.minths="10"
#**.switch*.eth[*].queuing.dropper.maxths="25"
##**.switch*.eth[*].queuing.redDropper.minths="10"
##**.switch*.eth[*].queuing.redDropper.maxths="25"

#Mfd Dropper
**.switch*.eth[*].queuing.dropper.typename= "MfdDropper"
**.switch*.eth[*].queuing.dropper.DetnetBandwidthReservation= 0.005 #Gbps
**.switch*.eth[*].queuing.dropper.OutputLinkBandwidth= 0.016  #Gbps


#**.queues[0].expressQueue = true
#**.queues[1].expressQueue = true
#**.queues[2].expressQueue = true
#**.queues[3].expressQueue = true
#**.queues[4].expressQueue = true
#**.queues[5].expressQueue = true
#**.queues[6].expressQueue = true
#**.queues[7].expressQueue = true

**.queues[*].bufferCapacity = 363360b

**.switchA.eth[3].mac.enablePreemptingFrames = false

# Schedule/Routing Swap
#**.scheduleSwap.schedule = xmldoc("xml/TestScenarioScheduleSwap.xml")

## Robot Controller
#**.robotController.trafGenSchedApp.initialSchedule = xmldoc("xml/TestScenarioSchedule_AllOpen.xml")

# Workstations
**.priority0.trafGenQueueApp.destAddress = "00-00-00-00-00-06"
**.priority1.trafGenQueueApp.destAddress = "00-00-00-00-00-07"
**.priority2.trafGenQueueApp.destAddress = "00-00-00-00-00-08"
**.nonpriority0.trafGenQueueApp.destAddress = "00-00-00-00-00-09"

**.nonpriority1.numApps = 1
**.nonpriority1.app[0].typename = "UdpTrafficApp"
#**.nonpriority1.hasUdp = true
**.nonpriority1.app[0].destAddresses = "10.0.0.2"
*.nonpriority1.app[0].messageLength = 1500Byte-34Byte
*.nonpriority1.app[0].startTime = 0s
*.nonpriority1.app[0].stopTime = 1s
*.nonpriority1.app[0].sendInterval = 0.00013s
*.nonpriority1.app[0].destPort=1234


**.nonprioritysink1.numApps = 1
**.nonprioritysink1.app[0].typename = "UdpTrafficApp"
#**.nonpriority1.hasUdp = true
**.nonprioritysink1.app[0].destAddresses = "10.0.0.2"
*.nonprioritysink1.app[0].messageLength = 1500Byte-4Byte
*.nonprioritysink1.app[0].startTime = 0s
*.nonprioritysink1.app[0].stopTime = 0s
*.nonprioritysink1.app[0].sendInterval = 0.000001s
*.nonprioritysink1.app[0].destPort=1234


#*.controller.numApps = 2
#*.controller.app[0].typename = "UdpBasicApp"
#*.controller.app[0].destAddresses = "lamp1 lamp2 lamp3 lamp4 lamp5 lamp6 lamp7 lamp8"
#*.controller.app[0].destPort = 1000
#*.controller.app[0].sendInterval = 0.125s
#*.controller.app[0].startTime = exponential(1s)
#*.controller.app[0].messageLength = 10Byte
#*.controller.app[0].packetName = "ControlData"


#**.nonpriority1.trafGenQueueApp.destAddress = "00-00-00-00-00-10"

**.*priority*.trafGenQueueApp.packetLength = 1500Byte-4Byte # MTU-Size - VLAN-Tag-Size
**.priority*.trafGenQueueApp.pcp = 7
**.nonpriority*.trafGenQueueApp.pcp = 5
**.priority0.trafGenQueueApp.vid = 1
**.priority1.trafGenQueueApp.vid = 2
**.priority2.trafGenQueueApp.vid = 3
**.nonpriority0.trafGenQueueApp.vid = 4
**.nonpriority1.trafGenQueueApp.vid = 5

# 
**.*sink*.trafGenApp.numPacketsPerBurst = 0
**.*sink*.trafGenApp.sendInterval = 1ms
**.*sink*.trafGenApp.packetLength = 100B

