[General]
network = TestScenariodetnet2

check-signals = true
record-eventlog = true
debug-on-errors = true
result-dir = results_strict_priority_detnet2
sim-time-limit = 1s

# debug
**.displayAddresses = true
**.verbose = true
**.registerProtocol = true

**.*.clock.clockRate = "1us"

# MAC Addresses
**.priority0.eth.address="00-00-00-00-00-01"
**.priority1.eth.address="00-00-00-00-00-02"
**.priority2.eth.address="00-00-00-00-00-03"
**.nonpriority0.eth.address="00-00-00-00-00-04"
**.nonpriority1.eth.address="00-00-00-00-00-05"

**.prioritysink0.eth.address="00-00-00-00-00-06"
**.prioritysink1.eth.address="00-00-00-00-00-07"
**.prioritysink2.eth.address="00-00-00-00-00-08"
**.nonprioritysink0.eth.address="00-00-00-00-00-09"
**.nonprioritysink1.eth.address="00-00-00-00-00-10"

# Switches
**.switch*.processingDelay[*].delay = 5us
**.filteringDatabase.database = xmldoc("xml/TestScenarioRouting2.xml", "/filteringDatabases/")
**.filteringDatabase.cycle = xmldoc("xml/TestScenarioSchedule_AllOpen.xml", "/schedule/")

**.gateController.initialSchedule = xmldoc("xml/TestScenarioSchedule_AllOpen.xml")
**.gateController.enableHoldAndRelease = false
**.switch*.eth[*].queuing.tsAlgorithms[0].typename = "StrictPriority"
**.switch*.eth[*].queuing.tsAlgorithms[1].typename = "StrictPriority"
**.switch*.eth[*].queuing.tsAlgorithms[2].typename = "StrictPriority"
**.switch*.eth[*].queuing.tsAlgorithms[3].typename = "StrictPriority"
**.switch*.eth[*].queuing.tsAlgorithms[4].typename = "StrictPriority"
**.switch*.eth[*].queuing.tsAlgorithms[5].typename = "StrictPriority"
**.switch*.eth[*].queuing.tsAlgorithms[6].typename = "StrictPriority"
**.switch*.eth[*].queuing.tsAlgorithms[7].typename = "StrictPriority"

#Red Dropper
#**.switch*.eth[*].queuing.dropper.typename="RedDropper"
#**.switch*.eth[*].queuing.dropper.minths="10"
#**.switch*.eth[*].queuing.dropper.maxths="25"
##**.switch*.eth[*].queuing.redDropper.minths="10"
##**.switch*.eth[*].queuing.redDropper.maxths="25"

#Mfd Dropper
**.switch*.eth[*].queuing.dropper.typename= "MfdDropper"
**.switch*.eth[*].queuing.dropper.DetnetBandwidthReservation= 0.005 #Gbps
**.switch*.eth[*].queuing.dropper.OutputLinkBandwidth= 0.016  #Gbps


#**.queues[0].expressQueue = true
#**.queues[1].expressQueue = true
#**.queues[2].expressQueue = true
#**.queues[3].expressQueue = true
#**.queues[4].expressQueue = true
#**.queues[5].expressQueue = true
#**.queues[6].expressQueue = true
#**.queues[7].expressQueue = true

**.queues[*].bufferCapacity = 363360b

**.switchA.eth[3].mac.enablePreemptingFrames = false

# Schedule/Routing Swap
#**.scheduleSwap.schedule = xmldoc("xml/TestScenarioScheduleSwap.xml")

## Robot Controller
#**.robotController.trafGenSchedApp.initialSchedule = xmldoc("xml/TestScenarioSchedule_AllOpen.xml")

# Workstations
**.priority0.trafGenQueueApp.destAddress = "00-00-00-00-00-06"
**.priority1.trafGenQueueApp.destAddress = "00-00-00-00-00-07"
**.priority2.trafGenQueueApp.destAddress = "00-00-00-00-00-08"
**.nonpriority0.trafGenQueueApp.destAddress = "00-00-00-00-00-09"
**.nonpriority1.trafGenQueueApp.destAddress = "00-00-00-00-00-10"

**.*priority*.trafGenQueueApp.packetLength = 1500Byte-4Byte # MTU-Size - VLAN-Tag-Size
**.priority*.trafGenQueueApp.pcp = 7
**.nonpriority*.trafGenQueueApp.pcp = 5
**.priority0.trafGenQueueApp.vid = 1
**.priority1.trafGenQueueApp.vid = 2
**.priority2.trafGenQueueApp.vid = 3
**.nonpriority0.trafGenQueueApp.vid = 4
**.nonpriority1.trafGenQueueApp.vid = 5

# 
**.*sink*.trafGenApp.numPacketsPerBurst = 0
**.*sink*.trafGenApp.sendInterval = 1ms
**.*sink*.trafGenApp.packetLength = 100B

